# Packages
 &PACKAGES
 useMNC=.TRUE.,
 useRBCS=.FALSE.,
 useDIAGNOSTICS=.TRUE.,
 &
